/*--------------------------------*- C++ -*----------------------------------*\
| =========                 |                                                 |
| \\      /  F ield         | OpenFOAM: The Open Source CFD Toolbox           |
|  \\    /   O peration     | Version:  2212                                  |
|   \\  /    A nd           | Website:  www.openfoam.com                      |
|    \\/     M anipulation  |                                                 |
\*---------------------------------------------------------------------------*/
FoamFile
{
    version     2.0;
    format      ascii;
    class       dictionary;
    location    "system";
    object      controlDict;
}
// * * * * * * * * * * * * * * * * * * * * * * * * * * * * * * * * * * * * * //

application         rhoGodunovTurbFoam;

startFrom           latestTime;

startTime           0;

stopAt              endTime;

endTime             0.1;

deltaT              1e-8;

writeControl        timeStep;

writeInterval       10000;

purgeWrite          3;

writeFormat         binary;

writePrecision      15;

writeCompression    off;

timeFormat          general;

timePrecision       9;

runTimeModifiable   false;

adjustTimeStep      no;

maxCo               1;

maxDeltaT           1e-8;

// functions
// {
//   #include "timeAverageFields"
//   #include "cutPlanes"
// }

// ************************************************************************* //
